data_Molden
_symmetry_space_group_name_H-M P1     
_symmetry_Int_Tables_number    1
_cell_length_a  1.5875
_cell_length_b  1.5875
_cell_length_c  1.5875
_cell_angle_alpha 90.0000
_cell_angle_beta 90.0000
_cell_angle_gamma 90.0000
loop_
_atom_site_label
_atom_site_type_symbol
_atom_site_fract_x
_atom_site_fract_y
_atom_site_fract_z
#END
